         108

 Ar   4.2089692466622211        4.6373360885614527        2.4171082746549506     
 Ar   4.2236106953732664        3.2827489564474668        4.4917784442258997     
 Ar   4.4228807558957479        2.3222558921216985        3.7138127573481756     
 Ar   4.1769333789353258        2.6992647195630703        3.1696244489718226     
 Ar   3.9212371291895392        4.4192543172668666        3.7624473904329347     
 Ar  0.54423999892175190        4.2409669027901247        2.5948005033410153     
 Ar   1.3383365530990994        4.4366530703455203        2.9241767077385443     
 Ar   4.0783271458619268        2.9284708636803551        2.2170573377548717     
 Ar   2.8100342398951761        3.6901809689104552        2.1079603077555071     
 Ar  0.36305060509173198        4.3305012516709969        2.6256442365907131     
 Ar   3.1729619888863523        1.1285842418149112       0.67598268446791909     
 Ar   1.5817668562848120        1.5745972121031953        3.5923726679547685     
 Ar   3.2772582210917021        2.9520295939445491        3.7440863456893707     
 Ar   4.6969024332365947       0.75459733384242278        1.8330764934085308     
 Ar   1.5264898445345461       0.35462992686312644        2.2887760441694405     
 Ar  0.57753140993928531        1.8611894322526639        3.3336200779215428     
 Ar   3.1885355238714252        2.3035059569897127        4.3798452563039021     
 Ar  0.25215884290076790        1.9511219838252289       0.62745604815660039     
 Ar   2.5055460269260217        2.6499661366622891        3.0039956566803157     
 Ar   3.3722420380432157        1.7065597972855902        1.4185422326046973     
 Ar   1.5087099112421274        1.8103438417236319        3.9451515708118674E-002
 Ar   3.0983606284484266        3.5720912231556134       0.11820658805221318     
 Ar   3.9269827981330452        1.9222470282628199        2.0349788445909507     
 Ar   2.4907403395203871        1.7787677228194660       0.85290524835046377     
 Ar   1.4811326133324763        1.9947752874940632        4.0162593173985366     
 Ar   1.4892327605080788        1.8717796243508344        2.3292334726816040     
 Ar   1.2485256269262170        4.1912926855906845        2.1180312216971067     
 Ar   4.7529987824298434        4.0130024937214328        3.6486671422487120     
 Ar   2.0668474545255302        2.7395618964079764        4.5001722499346357     
 Ar   1.7748440078403800        3.9642154022995379        2.4514084579157642     
 Ar   1.4367394876931792        1.8924948357706888        1.9035323931798338     
 Ar   4.0888362281201402       0.20370053266268220        4.7038788252277293     
 Ar   2.0398410377274265        2.0663964381352997        4.0533858340410509     
 Ar   5.8244942256715143E-002   2.5210446055755016        3.6140267455908468     
 Ar   2.9277750675389540        1.6916584445075131        4.1743114882521324     
 Ar   2.1790616746549492        3.0838442865791729        1.1997949803248047     
 Ar   2.1724078305140138        1.0221531227841041        4.3924737318614495     
 Ar   1.0915153663228265        2.4518344966219736        3.3244970863806080     
 Ar  0.89405181502317999        3.2938021426489574        1.0778803637195378     
 Ar  0.10760733089968560       0.46943666827445846        2.9715238780304789     
 Ar   2.0380774600077420        3.5051634279047135        4.6022081214799542     
 Ar  0.20046032233862204        3.1401319798221810       0.30778584823943672     
 Ar   1.2991628908421844        3.4138636064683086        1.6933802027897908     
 Ar   1.0422962401313707       0.70141728448215868       0.65860937807010478     
 Ar  0.57880085682356730        1.8328892372814005        1.4424977386128157     
 Ar   3.8369277352779170        3.7860235822359098        4.3537794542042532     
 Ar   1.7987287496570497       0.59468400732101867        4.6995136035173193     
 Ar  0.90410069609293708        3.0817490050382910        2.3789707771600224     
 Ar  0.90027047335682431        2.8822836965941820        1.7353909177221356     
 Ar   1.3616920336685143       0.25891058208933099        2.0852582395416683     
 Ar   4.1839317550137638        4.6709668869650915        4.4412806874606758     
 Ar   2.0052400279324499E-002   2.5348318857913834        3.6706136022587303     
 Ar  0.62758203090261666        1.6225853214310482        2.3509358813823198     
 Ar   4.1363065283712928       0.13166332307970149        1.5238842035378328     
 Ar   2.8992240745783779       0.71380462582409376       0.78943750984035421     
 Ar   3.0774179391576904        3.1909541814909312        2.2250105270501224     
 Ar   1.5381381389149462        2.3126468158680944        4.1026605723896061     
 Ar   1.8565308879571965        3.4568417287897315        1.5862583379261195E-002
 Ar   2.6502264287881552        2.2304537573521954        2.2830420447094362     
 Ar   1.4920185328717341        3.8190399582181120        4.0189312454964963     
 Ar  0.22118056078348305        3.5623230050830168        2.5503212530328891     
 Ar   4.4573736059325739        3.7964286126159128       0.62251260658772656     
 Ar  0.31053379151923577        2.6117137671001251        3.3345701701254580     
 Ar   2.8739765277919358        3.1520284466966983        1.3959648122144861     
 Ar   3.0177057542116379        2.7144246170935218       0.67279095932329069     
 Ar   2.9603562588226047        3.2686029125135390        3.0003154297708532     
 Ar   2.3914723840886727        2.6318166627036406        3.7880533483582544     
 Ar   2.5890339801157825        2.1006562433200888       0.18156974359788000     
 Ar  0.66497904118336726        1.9091468106471001        3.9319743235176428     
 Ar   2.4536902405321595E-002   4.5505727713522495        2.0710376395271157     
 Ar   1.2946700554299166        4.2095553141790436        1.0226018230174667     
 Ar  0.13254996544681488        3.9976943931961428        2.2909973073475993     
 Ar   3.2272939975471231       0.18329158060066400        1.3635554833183996     
 Ar   3.5602776024071496        6.6778734091669317E-002   4.0009321310310622     
 Ar   3.1646128997514023        1.9686220856751313        1.1377403502967207     
 Ar   1.0698874238948337        1.6772770273685453        1.3934720364664679     
 Ar  0.47005321725830429        2.3843750020056032       0.99744066921481855     
 Ar   4.6482541859392068        1.3689135956871321        3.2521067598899824     
 Ar   4.0773723348625932        3.7608881035144437       0.97700148293469091     
 Ar   3.9544933111174028       0.16753127733385190        3.5697749953283924     
 Ar   1.6471166091794147       0.43913858122471716        3.9670675371587274     
 Ar   2.1811808606199916        3.9370301269674668        4.3561435895576137     
 Ar   2.7239851760142479        3.7834676493583244       0.46063729340862480     
 Ar  0.87825379465520370        1.8929597989954052        1.8069070751653051     
 Ar  0.77842068696906785        2.2848124555908140        4.2365831451723350     
 Ar   2.7004964327150955       0.71969978279154745        4.4072686833422630     
 Ar  0.92470488498918701        1.3978648813134058        1.6941719060088507     
 Ar   3.9790692910472858        2.1985266347979193        1.8390213706912470     
 Ar   1.3849915539366191        3.7507069620154794        2.4572790673901324     
 Ar   3.0426018882230852       0.97143536437861611        1.9730267452504484     
 Ar   1.3180966494437305        4.2402713561151169        4.4144856695928603     
 Ar   2.0398732410669327        3.6108974646562708        3.5831773245073850     
 Ar   3.1174055570359340        3.6471821253560481        2.2600361619084142     
 Ar   2.3704003692022524        4.6131199833066194        3.3694859532890837     
 Ar  0.46324683384224769        1.0463732804819008        2.5270736328619532     
 Ar   2.4607755550942381        3.6408241860545236        3.1372882270338009     
 Ar   3.1978917930996973        3.0816277898722326        3.8574152226867149     
 Ar   1.3123404629970901       0.24182486609322948       0.30309710742300372     
 Ar   1.7976246657292356        3.1671191433584314        1.7890066274302079     
 Ar   1.3018410788835024        3.5740681755794208        4.2388099908540022     
 Ar   3.0377615516688672        1.0101905584027990        3.7996097304495047     
 Ar   2.5130624493514184        4.1403289677351713       0.79259385399799787     
 Ar   9.7567481622099876E-003   2.3821721572084349        2.5769507560469207     
 Ar   3.1738231014171614        2.0192749462299977        1.6698914583818985     
 Ar   3.4092333793803116       0.53420628984365603        1.4956692717447875     
 Ar   4.4709607930351041       0.94319752491824316        2.5418708982821552     
 Ar   3.9231628589560272       0.39272079188236964        1.4840548626617527     
 Ar   2.8047559179663657        1.7014715909231453        3.9401208381801842     
